DB-2133_tmp.pdbqt
 OpenBabel09162017173D

  5  4  0  0  0  0  0  0  0  0999 V2000
  -10.5460   -3.3950  -16.6880 C   0  0  0  0  0  1  0  0  0  0  0  0
   -9.3940   -2.6980  -16.1310 N   0  0  0  0  0  0  0  0  0  0  0  0
   -8.7110   -3.3820  -15.8060 H   0  0  0  0  0  0  0  0  0  0  0  0
   -8.7780   -1.8290  -17.1310 C   0  0  0  0  0  2  0  0  0  0  0  0
   -7.5170   -1.1940  -16.5630 C   0  0  0  0  0  1  0  0  0  0  0  0
  1  2  1  0  0  0  0
  2  3  1  0  0  0  0
  4  5  1  0  0  0  0
  4  2  1  0  0  0  0
M  END
>  <REMARK>
  1 active torsions:
  status: ('A' for Active; 'I' for Inactive)
    1  A    between atoms: N_2  and  C_3 

>  <TORSDO>
F 1

>  <AutodockScore>


>  <TITLE>
DB-2133

$$$$
