@<TRIPOS>MOLECULE
*****
 13 12 0 0 0
SMALL
GASTEIGER

@<TRIPOS>ATOM
      1 C           1.0226    0.0600   -0.0691 C.3     1  UNL1       -0.0158
      2 N           2.4793    0.0709   -0.0822 N.3     1  UNL1       -0.3192
      3 C           2.9841    0.8067   -1.2399 C.3     1  UNL1       -0.0072
      4 C           4.5048    0.8051   -1.2337 C.3     1  UNL1       -0.0526
      5 H           0.6683   -0.4894    0.8084 H       1  UNL1        0.0388
      6 H           0.6170   -0.4299   -0.9604 H       1  UNL1        0.0388
      7 H           0.6210    1.0766   -0.0053 H       1  UNL1        0.0388
      8 H           2.8235   -0.8889   -0.1111 H       1  UNL1        0.1216
      9 H           2.6310    1.8439   -1.2132 H       1  UNL1        0.0421
     10 H           2.6290    0.3492   -2.1706 H       1  UNL1        0.0421
     11 H           4.8978    1.2832   -0.3301 H       1  UNL1        0.0242
     12 H           4.8846    1.3572   -2.0994 H       1  UNL1        0.0242
     13 H           4.9019   -0.2144   -1.2840 H       1  UNL1        0.0242
@<TRIPOS>BOND
     1     1     2    1
     2     2     3    1
     3     3     4    1
     4     1     5    1
     5     1     6    1
     6     1     7    1
     7     2     8    1
     8     3     9    1
     9     3    10    1
    10     4    11    1
    11     4    12    1
    12     4    13    1
