@<TRIPOS>MOLECULE
*****
 12 11 0 0 0
SMALL
GASTEIGER

@<TRIPOS>ATOM
      1 C           0.9985   -0.0066   -0.1098 C.3     1  UNL1       -0.0632
      2 C           2.5163   -0.0178   -0.0796 C.3     1  UNL1       -0.0326
      3 C           3.0510   -0.3986    1.2934 C.3     1  UNL1        0.0440
      4 O           4.4722   -0.3918    1.2761 O.3     1  UNL1       -0.3950
      5 H           0.6405    0.2710   -1.1061 H       1  UNL1        0.0230
      6 H           0.5970    0.7151    0.6088 H       1  UNL1        0.0230
      7 H           0.5945   -0.9946    0.1332 H       1  UNL1        0.0230
      8 H           2.9023    0.9686   -0.3634 H       1  UNL1        0.0285
      9 H           2.8971   -0.7183   -0.8323 H       1  UNL1        0.0285
     10 H           2.7124   -1.3962    1.5911 H       1  UNL1        0.0557
     11 H           2.7196    0.3166    2.0527 H       1  UNL1        0.0557
     12 H           4.7599   -1.0470    0.6177 H       1  UNL1        0.2094
@<TRIPOS>BOND
     1     1     2    1
     2     2     3    1
     3     3     4    1
     4     1     5    1
     5     1     6    1
     6     1     7    1
     7     2     8    1
     8     2     9    1
     9     3    10    1
    10     3    11    1
    11     4    12    1
