REMARK  2 active torsions:
REMARK  status: ('A' for Active; 'I' for Inactive)
REMARK    1  A    between atoms: C_2  and  C_3 
REMARK    2  A    between atoms: C_3  and  O_4 
ROOT
ATOM      1  C   UNL d   1      -5.108  -6.048 -25.130  0.00  0.00     0.163 C 
ENDROOT
BRANCH   1   2
ATOM      2  C   UNL d   1      -4.149  -4.929 -25.509  0.00  0.00     0.021 C 
ATOM      3  C   UNL d   1      -4.887  -3.657 -25.881  0.00  0.00     0.007 C 
ENDBRANCH   1   2
BRANCH   1   4
ATOM      4  O   UNL d   1      -4.847  -7.197 -25.925  0.00  0.00    -0.401 OA
ATOM      5  H   UNL d   1      -4.897  -6.925 -26.857  0.00  0.00     0.209 HD
ENDBRANCH   1   4
TORSDOF 2
