REMARK  2 active torsions:
REMARK  status: ('A' for Active; 'I' for Inactive)
REMARK    1  A    between atoms: C_2  and  C_3 
REMARK    2  A    between atoms: C_3  and  O_4 
ROOT
ATOM      1  C   UNL d   1       3.051  -0.399   1.293  0.00  0.00     0.163 C 
ENDROOT
BRANCH   1   2
ATOM      2  C   UNL d   1       2.516  -0.018  -0.080  0.00  0.00     0.021 C 
ATOM      3  C   UNL d   1       0.999  -0.007  -0.110  0.00  0.00     0.007 C 
ENDBRANCH   1   2
BRANCH   1   4
ATOM      4  O   UNL d   1       4.472  -0.392   1.276  0.00  0.00    -0.401 OA
ATOM      5  H   UNL d   1       4.760  -1.047   0.618  0.00  0.00     0.209 HD
ENDBRANCH   1   4
TORSDOF 2
