REMARK  0 active torsions:
REMARK  status: ('A' for Active; 'I' for Inactive)
ROOT
ATOM      1  C   UNL d   1       0.996  -0.035  -0.096  0.00  0.00     0.203 C 
ATOM      2  N   UNL d   1       2.461  -0.028  -0.052  0.00  0.00    -0.206 NA
ATOM      3  N   UNL d   1       2.962  -0.204  -1.180  0.00  0.00    -0.209 NA
ATOM      4  H   UNL d   1       3.990  -0.198  -1.146  0.00  0.00     0.211 HD
ENDROOT
TORSDOF 0
