@<TRIPOS>MOLECULE
*****
 7 6 0 0 0
SMALL
GASTEIGER

@<TRIPOS>ATOM
      1 C           0.9964   -0.0351   -0.0961 C.3     1  UNL1        0.0488
      2 N           2.4605   -0.0283   -0.0523 N.2     1  UNL1       -0.1987
      3 N           2.9622   -0.2036   -1.1797 N.2     1  UNL1       -0.2086
      4 H           0.6057    0.1219    0.9135 H       1  UNL1        0.0490
      5 H           0.6192   -0.9957   -0.4622 H       1  UNL1        0.0490
      6 H           0.6192    0.7689   -0.7366 H       1  UNL1        0.0490
      7 H           3.9899   -0.1984   -1.1461 H       1  UNL1        0.2114
@<TRIPOS>BOND
     1     1     2    1
     2     2     3    2
     3     1     4    1
     4     1     5    1
     5     1     6    1
     6     3     7    1
