@<TRIPOS>MOLECULE
*****
 8 7 0 0 0
SMALL
GASTEIGER

@<TRIPOS>ATOM
      1 C           0.9921   -0.0967    0.0272 C.3     1  UNL1       -0.0517
      2 C           2.5065   -0.0965    0.0275 C.3     1  UNL1        0.0198
      3 CL          3.1285   -1.1904   -1.2268 Cl      1  UNL1       -0.1257
      4 H           0.6144    0.5783    0.8012 H       1  UNL1        0.0241
      5 H           0.5962   -1.0973    0.2300 H       1  UNL1        0.0241
      6 H           0.5962    0.2402   -0.9365 H       1  UNL1        0.0241
      7 H           2.8949   -0.4338    0.9927 H       1  UNL1        0.0427
      8 H           2.8949    0.9056   -0.1754 H       1  UNL1        0.0427
@<TRIPOS>BOND
     1     1     2    1
     2     2     3    1
     3     1     4    1
     4     1     5    1
     5     1     6    1
     6     2     7    1
     7     2     8    1
