REMARK  0 active torsions:
REMARK  status: ('A' for Active; 'I' for Inactive)
ROOT
ATOM      1  C   UNL d   1       0.992  -0.097   0.027  0.00  0.00     0.021 C 
ATOM      2  C   UNL d   1       2.506  -0.097   0.028  0.00  0.00     0.110 C 
ATOM      3 CL   UNL d   1       3.128  -1.190  -1.227  0.00  0.00    -0.131 Cl
ENDROOT
TORSDOF 0
